
     RDKit          3D

 16 17  0  0  0  0  0  0  0  0999 V2000
   -2.0080   -0.9411   -0.1312 C   0  0  0  0  0  0  0  0  0  0  0  0
   -0.7440   -1.4778   -0.1142 C   0  0  0  0  0  0  0  0  0  0  0  0
    0.3831   -0.6746   -0.0245 C   0  0  0  0  0  0  0  0  0  0  0  0
    0.2355    0.6985    0.0495 C   0  0  0  0  0  0  0  0  0  0  0  0
    1.5331    1.2061    0.1285 C   0  0  0  0  0  0  0  0  0  0  0  0
    2.4295    0.1592    0.1019 C   0  0  0  0  0  0  0  0  0  0  0  0
    1.7106   -0.9698    0.0090 N   0  0  0  0  0  0  0  0  0  0  0  0
   -1.0242    1.2466    0.0333 C   0  0  0  0  0  0  0  0  0  0  0  0
   -2.1337    0.4168   -0.0572 C   0  0  0  0  0  0  0  0  0  0  0  0
   -1.1804    3.1342    0.1369 Br  0  0  0  0  0  0  0  0  0  0  0  0
   -2.8825   -1.6058   -0.2032 H   0  0  0  0  0  0  0  0  0  0  0  0
   -0.5898   -2.5654   -0.1714 H   0  0  0  0  0  0  0  0  0  0  0  0
    1.7682    2.2565    0.1984 H   0  0  0  0  0  0  0  0  0  0  0  0
    3.5094    0.1841    0.1446 H   0  0  0  0  0  0  0  0  0  0  0  0
    2.1010   -1.9384   -0.0324 H   0  0  0  0  0  0  0  0  0  0  0  0
   -3.1078    0.8710   -0.0680 H   0  0  0  0  0  0  0  0  0  0  0  0
  1  2  2  0
  2  3  1  0
  3  4  2  0
  4  5  1  0
  5  6  2  0
  6  7  1  0
  4  8  1  0
  8  9  2  0
  8 10  1  0
  9  1  1  0
  7  3  1  0
  1 11  1  0
  2 12  1  0
  5 13  1  0
  6 14  1  0
  7 15  1  0
  9 16  1  0
M  END
