
     RDKit          3D

 16 17  0  0  0  0  0  0  0  0999 V2000
   -0.5293    3.2995    0.2816 Br  0  0  0  0  0  0  0  0  0  0  0  0
   -0.7944    1.4104    0.1343 C   0  0  0  0  0  0  0  0  0  0  0  0
   -2.0377    0.8140    0.1164 C   0  0  0  0  0  0  0  0  0  0  0  0
   -2.1265   -0.5605    0.0067 C   0  0  0  0  0  0  0  0  0  0  0  0
   -0.9962   -1.3614   -0.0863 C   0  0  0  0  0  0  0  0  0  0  0  0
    0.2593   -0.7899   -0.0707 C   0  0  0  0  0  0  0  0  0  0  0  0
    0.3360    0.5915    0.0399 C   0  0  0  0  0  0  0  0  0  0  0  0
    1.6814    0.8933    0.0313 C   0  0  0  0  0  0  0  0  0  0  0  0
    2.4350   -0.2816   -0.0829 C   0  0  0  0  0  0  0  0  0  0  0  0
    1.5168   -1.2555   -0.1395 N   0  0  0  0  0  0  0  0  0  0  0  0
   -2.9234    1.4605    0.1908 H   0  0  0  0  0  0  0  0  0  0  0  0
   -3.1015   -1.0252   -0.0071 H   0  0  0  0  0  0  0  0  0  0  0  0
   -1.0685   -2.4376   -0.1720 H   0  0  0  0  0  0  0  0  0  0  0  0
    2.0941    1.8937    0.1025 H   0  0  0  0  0  0  0  0  0  0  0  0
    3.5118   -0.3781   -0.1172 H   0  0  0  0  0  0  0  0  0  0  0  0
    1.7432   -2.2729   -0.2279 H   0  0  0  0  0  0  0  0  0  0  0  0
  1  2  1  0
  2  3  2  0
  3  4  1  0
  4  5  2  0
  5  6  1  0
  6  7  2  0
  7  8  1  0
  8  9  2  0
  9 10  1  0
  7  2  1  0
 10  6  1  0
  3 11  1  0
  4 12  1  0
  5 13  1  0
  8 14  1  0
  9 15  1  0
 10 16  1  0
M  END
$$$$
