
     RDKit          3D

 47 47  0  0  0  0  0  0  0  0999 V2000
    5.0340    0.7965   -1.2293 O   0  0  0  0  0  1  0  0  0  0  0  0
    3.7107    0.4897   -0.9376 C   0  0  0  0  0  0  0  0  0  0  0  0
    3.5033    1.2198   -1.9618 O   0  0  0  0  0  0  0  0  0  0  0  0
    3.3301   -0.3567    0.1887 C   0  0  0  0  0  0  0  0  0  0  0  0
    4.1491   -0.9264    1.0525 C   0  0  0  0  0  0  0  0  0  0  0  0
    1.9404   -0.5956    0.3803 N   0  0  0  0  0  4  0  0  0  0  0  0
    1.0303   -0.1070   -0.3829 C   0  0  0  0  0  0  0  0  0  0  0  0
   -0.3930   -0.3436   -0.1976 C   0  0  0  0  0  0  0  0  0  0  0  0
   -1.3223    0.6969   -0.2435 C   0  0  0  0  0  0  0  0  0  0  0  0
   -2.6557    0.3783   -0.0563 C   0  0  0  0  0  0  0  0  0  0  0  0
   -3.0887   -0.8757    0.1651 N   0  0  0  0  0  0  0  0  0  0  0  0
   -2.1882   -1.8987    0.2116 C   0  0  0  0  0  0  0  0  0  0  0  0
   -0.8487   -1.6252    0.0301 C   0  0  0  0  0  0  0  0  0  0  0  0
    0.0398   -2.6906    0.0838 O   0  0  0  0  0  1  0  0  0  0  0  0
   -2.6809   -3.2760    0.4567 C   0  0  0  0  0  0  0  0  0  0  0  0
   -0.7847    2.0428   -0.4889 C   0  0  0  0  0  0  0  0  0  0  0  0
   -2.1199    3.2585   -0.5157 P   0  0  0  0  0  0  0  0  0  0  0  0
   -3.1216    2.9749   -1.6089 O   0  0  0  0  0  0  0  0  0  0  0  0
   -1.4684    4.8103   -0.7451 O   0  0  0  0  0  1  0  0  0  0  0  0
   -2.8348    3.2464    1.0180 O   0  0  0  0  0  1  0  0  0  0  0  0
   -0.7534    3.2408    0.5419 Br  0  0  0  0  0  0  0  0  0  0  0  0
   -0.8175    1.3673    0.2181 C   0  0  0  0  0  0  0  0  0  0  0  0
   -2.0418    0.7582    0.0876 C   0  0  0  0  0  0  0  0  0  0  0  0
   -2.0737   -0.5965   -0.1462 C   0  0  0  0  0  0  0  0  0  0  0  0
   -0.9356   -1.3676   -0.2550 C   0  0  0  0  0  0  0  0  0  0  0  0
    0.3242   -0.7738   -0.1263 C   0  0  0  0  0  0  0  0  0  0  0  0
    0.3019    0.5841    0.1069 C   0  0  0  0  0  0  0  0  0  0  0  0
    1.6324    0.9809    0.2031 C   0  0  0  0  0  0  0  0  0  0  0  0
    2.3728   -0.1701    0.0206 C   0  0  0  0  0  0  0  0  0  0  0  0
    1.5834   -1.2392   -0.1800 N   0  0  0  0  0  0  0  0  0  0  0  0
    0.0000    0.0000    0.0000 Na  0  0  0  0  0 15  0  0  0  0  0  0
    4.7779   -0.3705    0.3501 H   0  0  0  0  0  0  0  0  0  0  0  0
    5.2084   -0.9049    1.1273 H   0  0  0  0  0  0  0  0  0  0  0  0
    1.5466   -1.1825    1.1501 H   0  0  0  0  0  0  0  0  0  0  0  0
    1.3417    0.5242   -1.2218 H   0  0  0  0  0  0  0  0  0  0  0  0
   -3.3633    1.1992   -0.0953 H   0  0  0  0  0  0  0  0  0  0  0  0
   -2.0483   -4.0449    0.0014 H   0  0  0  0  0  0  0  0  0  0  0  0
   -2.6116   -3.4263    1.5637 H   0  0  0  0  0  0  0  0  0  0  0  0
   -3.7515   -3.3617    0.1942 H   0  0  0  0  0  0  0  0  0  0  0  0
   -0.1751    2.0464   -1.3927 H   0  0  0  0  0  0  0  0  0  0  0  0
   -0.1556    2.3024    0.3896 H   0  0  0  0  0  0  0  0  0  0  0  0
   -2.9679    1.3130    0.1636 H   0  0  0  0  0  0  0  0  0  0  0  0
   -3.0362   -1.1154   -0.2558 H   0  0  0  0  0  0  0  0  0  0  0  0
   -0.9780   -2.4476   -0.4418 H   0  0  0  0  0  0  0  0  0  0  0  0
    2.1025    1.9536    0.3804 H   0  0  0  0  0  0  0  0  0  0  0  0
    3.4639   -0.2490    0.0300 H   0  0  0  0  0  0  0  0  0  0  0  0
    1.8230   -2.2388   -0.3469 H   0  0  0  0  0  0  0  0  0  0  0  0
  1  2  1  0
  2  3  2  0
  2  4  1  0
  4  5  2  0
  4  6  1  0
  6  7  2  0
  7  8  1  0
  8  9  2  0
  9 10  1  0
 10 11  2  0
 11 12  1  0
 12 13  2  0
 13 14  1  0
 12 15  1  0
  9 16  1  0
 16 17  1  0
 17 18  2  0
 17 19  1  0
 17 20  1  0
 21 22  1  0
 22 23  2  0
 23 24  1  0
 24 25  2  0
 25 26  1  0
 26 27  2  0
 27 28  1  0
 28 29  2  0
 29 30  1  0
 13  8  1  0
 27 22  1  0
 30 26  1  0
  5 32  1  0
  5 33  1  0
  6 34  1  0
  7 35  1  0
 10 36  1  0
 15 37  1  0
 15 38  1  0
 15 39  1  0
 16 40  1  0
 16 41  1  0
 23 42  1  0
 24 43  1  0
 25 44  1  0
 28 45  1  0
 29 46  1  0
 30 47  1  0
M  CHG  6   1  -1   6   1  14  -1  19  -1  20  -1  31   1
M  END
$$$$
