
     RDKit          3D

 30 30  0  0  0  0  0  0  0  0999 V2000
    3.6167   -3.1575    1.0894 O   0  0  0  0  0  1  0  0  0  0  0  0
    3.0470   -1.9280    0.7712 C   0  0  0  0  0  0  0  0  0  0  0  0
    2.6027   -2.5871   -0.2037 O   0  0  0  0  0  0  0  0  0  0  0  0
    3.0564   -0.6079    1.3784 C   0  0  0  0  0  0  0  0  0  0  0  0
    3.6682   -0.2226    2.4863 C   0  0  0  0  0  0  0  0  0  0  0  0
    2.2435    0.1110    0.4592 N   0  0  0  0  0  4  0  0  0  0  0  0
    0.9764    0.0248    0.6852 C   0  0  0  0  0  0  0  0  0  0  0  0
   -0.2299    0.5598    0.0523 C   0  0  0  0  0  0  0  0  0  0  0  0
   -1.1576   -0.2568   -0.6051 C   0  0  0  0  0  0  0  0  0  0  0  0
   -2.2815    0.2931   -1.1877 C   0  0  0  0  0  0  0  0  0  0  0  0
   -2.4978    1.6126   -1.1311 N   0  0  0  0  0  0  0  0  0  0  0  0
   -1.6563    2.4608   -0.5199 C   0  0  0  0  0  0  0  0  0  0  0  0
   -0.5319    1.9175    0.0639 C   0  0  0  0  0  0  0  0  0  0  0  0
    0.3970    2.7456    0.7236 O   0  0  0  0  0  1  0  0  0  0  0  0
   -1.9335    3.9167   -0.4800 C   0  0  0  0  0  0  0  0  0  0  0  0
   -0.8482   -1.6956   -0.6237 C   0  0  0  0  0  0  0  0  0  0  0  0
   -2.0709   -2.6886   -1.4789 P   0  0  0  0  0  0  0  0  0  0  0  0
   -1.5502   -4.1184   -1.4894 O   0  0  0  0  0  0  0  0  0  0  0  0
   -2.2495   -2.2214   -3.0939 O   0  0  0  0  0  1  0  0  0  0  0  0
   -3.5496   -2.7491   -0.6848 O   0  0  0  0  0  1  0  0  0  0  0  0
    3.4568    0.8266    2.6346 H   0  0  0  0  0  0  0  0  0  0  0  0
    4.2061   -1.0431    2.9397 H   0  0  0  0  0  0  0  0  0  0  0  0
    2.3520    0.7282   -0.3983 H   0  0  0  0  0  0  0  0  0  0  0  0
    0.5407   -0.5501    1.5124 H   0  0  0  0  0  0  0  0  0  0  0  0
   -2.9418   -0.4001   -1.6712 H   0  0  0  0  0  0  0  0  0  0  0  0
   -2.9023    4.1106    0.0654 H   0  0  0  0  0  0  0  0  0  0  0  0
   -1.1478    4.3964    0.1626 H   0  0  0  0  0  0  0  0  0  0  0  0
   -1.9548    4.4004   -1.4558 H   0  0  0  0  0  0  0  0  0  0  0  0
    0.1055   -1.8211   -1.1620 H   0  0  0  0  0  0  0  0  0  0  0  0
   -0.7652   -2.0568    0.4037 H   0  0  0  0  0  0  0  0  0  0  0  0
  1  2  1  0
  2  3  2  0
  2  4  1  0
  4  5  2  0
  4  6  1  0
  6  7  2  0
  7  8  1  0
  8  9  2  0
  9 10  1  0
 10 11  2  0
 11 12  1  0
 12 13  2  0
 13 14  1  0
 12 15  1  0
  9 16  1  0
 16 17  1  0
 17 18  2  0
 17 19  1  0
 17 20  1  0
 13  8  1  0
  5 21  1  0
  5 22  1  0
  6 23  1  0
  7 24  1  0
 10 25  1  0
 15 26  1  0
 15 27  1  0
 15 28  1  0
 16 29  1  0
 16 30  1  0
M  CHG  5   1  -1   6   1  14  -1  19  -1  20  -1
M  END
$$$$
